/*--------------------------------*- C++ -*----------------------------------*\
  =========                 |
  \\      /  F ield         | OpenFOAM: The Open Source CFD Toolbox
   \\    /   O peration     | Website:  https://openfoam.org
    \\  /    A nd           | Version:  13
     \\/     M anipulation  |
\*---------------------------------------------------------------------------*/
FoamFile
{
    format      ascii;
    class       extendedFeatureEdgeMesh;
    location    "constant/extendedFeatureEdgeMesh";
    object      bottle.extendedFeatureEdgeMesh;
}
// * * * * * * * * * * * * * * * * * * * * * * * * * * * * * * * * * * * * * //

// points

240
(
(0.0121915 1.08994e-10 0.194998)
(0.0121915 -4.06091e-09 0.194998)
(0.0136941 0.00291076 0.213696)
(0.0127896 0.00569431 0.213696)
(0.0113262 0.00822899 0.213696)
(0.00936783 0.010404 0.213696)
(0.007 0.0121244 0.213696)
(0.00432624 0.0133148 0.213696)
(0.0014634 0.0139233 0.213696)
(-0.0014634 0.0139233 0.213696)
(-0.00432624 0.0133148 0.213696)
(-0.007 0.0121244 0.213696)
(-0.00936783 0.010404 0.213696)
(-0.0113262 0.00822899 0.213696)
(-0.0127896 0.00569431 0.213696)
(-0.0136941 0.00291076 0.213696)
(-0.014 0 0.213696)
(-0.0136941 -0.00291076 0.213696)
(-0.0127896 -0.00569431 0.213696)
(-0.0113262 -0.00822899 0.213696)
(-0.00936783 -0.010404 0.213696)
(-0.007 -0.0121244 0.213696)
(-0.00432624 -0.0133148 0.213696)
(-0.0014634 -0.0139233 0.213696)
(0.0014634 -0.0139233 0.213696)
(0.00432624 -0.0133148 0.213696)
(0.007 -0.0121244 0.213696)
(0.00936783 -0.010404 0.213696)
(0.0113262 -0.00822899 0.213696)
(0.0127896 -0.00569431 0.213696)
(0.0136941 -0.00291076 0.213696)
(0.014 0 0.213696)
(-0.014 0 0.196696)
(-0.0136941 -0.00291076 0.196696)
(-0.0127896 -0.00569431 0.196696)
(-0.0113262 -0.00822899 0.196696)
(-0.00936783 -0.010404 0.196696)
(-0.007 -0.0121244 0.196696)
(-0.00432624 -0.0133148 0.196696)
(-0.0014634 -0.0139233 0.196696)
(0.0014634 -0.0139233 0.196696)
(0.00432624 -0.0133148 0.196696)
(0.007 -0.0121244 0.196696)
(0.00936783 -0.010404 0.196696)
(0.0113262 -0.00822899 0.196696)
(0.0127896 -0.00569431 0.196696)
(0.0136941 -0.00291076 0.196696)
(0.014 0 0.196696)
(0.0136941 0.00291076 0.196696)
(0.0127896 0.00569431 0.196696)
(0.0113262 0.00822899 0.196696)
(0.00936783 0.010404 0.196696)
(0.007 0.0121244 0.196696)
(0.00432624 0.0133148 0.196696)
(0.0014634 0.0139233 0.196696)
(-0.0014634 0.0139233 0.196696)
(-0.00432624 0.0133148 0.196696)
(-0.007 0.0121244 0.196696)
(-0.00936783 0.010404 0.196696)
(-0.0113262 0.00822899 0.196696)
(-0.0127896 0.00569431 0.196696)
(-0.0136941 0.00291076 0.196696)
(0.0120721 0.00170263 0.194998)
(0.012072 -0.00170263 0.194998)
(-0.00100213 0.0133139 0.196696)
(-0.00298374 0.0130139 0.196696)
(0.00981979 0.00904631 0.196696)
(0.00835506 0.0104143 0.196696)
(0.0110633 0.0074745 0.196696)
(0.00100206 0.0133139 0.196696)
(0.00489805 0.0124207 0.196696)
(0.00298367 0.0130139 0.196696)
(0.0120574 0.00573428 0.196696)
(0.0133516 -1.59311e-11 0.196696)
(0.0132145 0.00190833 0.196696)
(-0.00113353 -0.0133034 0.196696)
(0.000882572 -0.0133224 0.196696)
(-0.0120575 0.00573422 0.196696)
(-0.01278 0.00386479 0.196696)
(-0.00835512 0.0104142 0.196696)
(-0.00981985 0.00904626 0.196696)
(-0.00670213 0.0115475 0.196696)
(0.00670206 0.0115476 0.196696)
(0.0132128 -0.0019197 0.196696)
(0.00662955 -0.0115894 0.196696)
(0.00829905 -0.010459 0.196696)
(0.00287855 -0.0130376 0.196696)
(0.00480888 -0.0124555 0.196696)
(-0.00312378 -0.012981 0.196696)
(-0.0132145 0.00190827 0.196696)
(-0.0110633 0.00747445 0.196696)
(-0.00489812 0.0124207 0.196696)
(0.0127799 0.00386485 0.196696)
(0.0097793 -0.00909006 0.196696)
(0.0110366 -0.00751389 0.196696)
(-0.0050428 -0.0123626 0.196696)
(-0.00684682 -0.0114623 0.196696)
(-0.0133516 -6.3842e-08 0.196696)
(-0.0132467 -0.00167032 0.196696)
(0.0127731 -0.00388736 0.196696)
(-0.00849472 -0.0103007 0.196696)
(-0.0111762 -0.00730453 0.196696)
(-0.00994891 -0.00890413 0.196696)
(-0.0121487 -0.00553837 0.196696)
(-0.0128441 -0.00364592 0.196696)
(0.0120421 -0.00576637 0.196696)
(0.0120308 0.00169681 0.194853)
(0.0116105 0.00357984 0.194853)
(0.0108974 0.0053726 0.194853)
(0.00990956 0.00702988 0.194853)
(0.00867181 0.00850989 0.194853)
(0.00721539 0.00977531 0.194853)
(0.00557702 0.0107942 0.194853)
(0.00379802 0.011541 0.194853)
(0.00192324 0.0119967 0.194853)
(-3.4592e-08 0.0121498 0.194853)
(-0.00192331 0.0119967 0.194853)
(-0.00379809 0.011541 0.194853)
(-0.00557709 0.0107942 0.194853)
(-0.00721546 0.00977531 0.194853)
(-0.00867188 0.00850988 0.194853)
(-0.00990963 0.00702987 0.194853)
(-0.0108975 0.00537259 0.194853)
(-0.0116106 0.00357983 0.194853)
(-0.0120308 0.0016968 0.194853)
(-0.0120308 -0.00169678 0.194853)
(-0.0116106 -0.00357981 0.194853)
(-0.0108975 -0.00537257 0.194853)
(-0.00990963 -0.00702986 0.194853)
(-0.00867189 -0.00850987 0.194853)
(-0.00721547 -0.00977529 0.194853)
(-0.0055771 -0.0107942 0.194853)
(-0.00379809 -0.0115409 0.194853)
(-0.00192332 -0.0119967 0.194853)
(-4.19031e-08 -0.0121498 0.194853)
(0.00192323 -0.0119967 0.194853)
(0.00379801 -0.011541 0.194853)
(0.00557702 -0.0107942 0.194853)
(0.00721539 -0.00977531 0.194853)
(0.00867181 -0.00850989 0.194853)
(0.00990956 -0.00702988 0.194853)
(0.0108974 -0.0053726 0.194853)
(0.0116105 -0.00357984 0.194853)
(0.0120308 -0.00169681 0.194853)
(-0.0248086 -0.00260749 0.00301121)
(-0.0244001 -0.00518641 0.00301121)
(-0.0249453 0 0.00301121)
(-0.0227886 -0.0101462 0.00301121)
(-0.0216032 -0.0124726 0.00301121)
(-0.0237243 -0.00770851 0.00301121)
(-0.0201811 -0.0146625 0.00301121)
(-0.0185379 -0.0166916 0.00301121)
(-0.0166916 -0.0185379 0.00301121)
(-0.0146625 -0.0201811 0.00301121)
(-0.0101462 -0.0227886 0.00301121)
(-0.00770851 -0.0237243 0.00301121)
(-0.0124726 -0.0216032 0.00301121)
(-0.00518641 -0.0244001 0.00301121)
(-0.00260749 -0.0248086 0.00301121)
(0.00260749 -0.0248086 0.00301121)
(0.00518641 -0.0244001 0.00301121)
(0 -0.0249453 0.00301121)
(0.0101462 -0.0227886 0.00301121)
(0.0124726 -0.0216032 0.00301121)
(0.00770851 -0.0237243 0.00301121)
(0.0146625 -0.0201811 0.00301121)
(0.0166916 -0.0185379 0.00301121)
(0.0185379 -0.0166916 0.00301121)
(0.0201811 -0.0146625 0.00301121)
(0.0227886 -0.0101462 0.00301121)
(0.0237243 -0.00770851 0.00301121)
(0.0216032 -0.0124726 0.00301121)
(0.0244001 -0.00518641 0.00301121)
(0.0248086 -0.00260749 0.00301121)
(0.0249453 0 0.00301121)
(0.0248086 0.00260749 0.00301121)
(0.0244001 0.00518641 0.00301121)
(0.0227886 0.0101462 0.00301121)
(0.0216032 0.0124726 0.00301121)
(0.0237243 0.00770851 0.00301121)
(0.0201811 0.0146625 0.00301121)
(0.0185379 0.0166916 0.00301121)
(0.0166916 0.0185379 0.00301121)
(0.0146625 0.0201811 0.00301121)
(0.0101462 0.0227886 0.00301121)
(0.00770851 0.0237243 0.00301121)
(0.0124726 0.0216032 0.00301121)
(0.00518641 0.0244001 0.00301121)
(0.00260749 0.0248086 0.00301121)
(-0.00260749 0.0248086 0.00301121)
(-0.00518641 0.0244001 0.00301121)
(0 0.0249453 0.00301121)
(-0.0101462 0.0227886 0.00301121)
(-0.0124726 0.0216032 0.00301121)
(-0.00770851 0.0237243 0.00301121)
(-0.0146625 0.0201811 0.00301121)
(-0.0166916 0.0185379 0.00301121)
(-0.0185379 0.0166916 0.00301121)
(-0.0201811 0.0146625 0.00301121)
(-0.0227886 0.0101462 0.00301121)
(-0.0237243 0.00770851 0.00301121)
(-0.0216032 0.0124726 0.00301121)
(-0.0244001 0.00518641 0.00301121)
(-0.0248086 0.00260749 0.00301121)
(-0.0101041 0 0.211696)
(-0.00995061 -0.00175456 0.211696)
(-0.00949477 -0.00345581 0.211696)
(-0.00875042 -0.00505206 0.211696)
(-0.0077402 -0.0064948 0.211696)
(-0.0064948 -0.0077402 0.211696)
(-0.00505206 -0.00875042 0.211696)
(-0.00345581 -0.00949477 0.211696)
(-0.00175456 -0.00995061 0.211696)
(0 -0.0101041 0.211696)
(0.00175456 -0.00995061 0.211696)
(0.00345581 -0.00949477 0.211696)
(0.00505206 -0.00875042 0.211696)
(0.0064948 -0.0077402 0.211696)
(0.0077402 -0.0064948 0.211696)
(0.00875042 -0.00505206 0.211696)
(0.00949477 -0.00345581 0.211696)
(0.00995061 -0.00175456 0.211696)
(0.0101041 0 0.211696)
(0.00995061 0.00175456 0.211696)
(0.00949477 0.00345581 0.211696)
(0.00875042 0.00505206 0.211696)
(0.0077402 0.0064948 0.211696)
(0.0064948 0.0077402 0.211696)
(0.00505206 0.00875042 0.211696)
(0.00345581 0.00949477 0.211696)
(0.00175456 0.00995061 0.211696)
(0 0.0101041 0.211696)
(-0.00175456 0.00995061 0.211696)
(-0.00345581 0.00949477 0.211696)
(-0.00505206 0.00875042 0.211696)
(-0.0064948 0.0077402 0.211696)
(-0.0077402 0.0064948 0.211696)
(-0.00875042 0.00505206 0.211696)
(-0.00949477 0.00345581 0.211696)
(-0.00995061 0.00175456 0.211696)
)

// edges

233
(
(2 3)
(3 4)
(4 5)
(5 6)
(6 7)
(7 8)
(8 9)
(9 10)
(10 11)
(11 12)
(12 13)
(13 14)
(14 15)
(15 16)
(16 17)
(17 18)
(18 19)
(19 20)
(20 21)
(21 22)
(22 23)
(23 24)
(24 25)
(25 26)
(26 27)
(27 28)
(28 29)
(29 30)
(30 31)
(31 2)
(32 33)
(33 34)
(34 35)
(35 36)
(36 37)
(37 38)
(38 39)
(39 40)
(40 41)
(41 42)
(42 43)
(43 44)
(44 45)
(45 46)
(46 47)
(47 48)
(48 49)
(49 50)
(50 51)
(51 52)
(52 53)
(53 54)
(54 55)
(55 56)
(56 57)
(57 58)
(58 59)
(59 60)
(60 61)
(61 32)
(0 62)
(1 63)
(0 1)
(64 65)
(66 67)
(68 66)
(69 64)
(70 71)
(72 68)
(73 74)
(75 76)
(77 78)
(79 80)
(81 79)
(71 69)
(82 70)
(83 73)
(84 85)
(86 87)
(76 86)
(88 75)
(78 89)
(90 77)
(65 91)
(92 72)
(93 94)
(95 88)
(96 95)
(97 98)
(91 81)
(67 82)
(99 83)
(85 93)
(100 96)
(101 102)
(80 90)
(74 92)
(87 84)
(102 100)
(103 101)
(98 104)
(105 99)
(104 103)
(94 105)
(89 97)
(106 107)
(107 108)
(108 109)
(110 111)
(111 112)
(112 113)
(113 114)
(114 115)
(115 116)
(117 118)
(118 119)
(119 120)
(121 122)
(122 123)
(123 124)
(62 1)
(125 126)
(126 127)
(127 128)
(129 130)
(130 131)
(131 132)
(132 133)
(133 134)
(134 135)
(136 137)
(137 138)
(138 139)
(140 141)
(141 142)
(142 143)
(63 0)
(144 145)
(146 144)
(147 148)
(145 149)
(149 147)
(148 150)
(151 152)
(152 153)
(154 155)
(156 154)
(157 158)
(159 160)
(161 159)
(162 163)
(160 164)
(164 162)
(163 165)
(166 167)
(167 168)
(169 170)
(171 169)
(172 173)
(173 174)
(170 172)
(168 171)
(165 166)
(158 161)
(155 157)
(153 156)
(150 151)
(175 176)
(174 175)
(177 178)
(176 179)
(179 177)
(178 180)
(181 182)
(182 183)
(184 185)
(186 184)
(187 188)
(189 190)
(191 189)
(192 193)
(190 194)
(194 192)
(193 195)
(196 197)
(197 198)
(199 200)
(201 199)
(202 203)
(203 146)
(200 202)
(198 201)
(195 196)
(188 191)
(185 187)
(183 186)
(180 181)
(204 205)
(205 206)
(206 207)
(207 208)
(208 209)
(209 210)
(210 211)
(211 212)
(212 213)
(213 214)
(214 215)
(215 216)
(216 217)
(217 218)
(218 219)
(219 220)
(220 221)
(221 222)
(222 223)
(223 224)
(224 225)
(225 226)
(226 227)
(227 228)
(228 229)
(229 230)
(230 231)
(231 232)
(232 233)
(233 234)
(234 235)
(235 236)
(236 237)
(237 238)
(238 239)
(239 204)
)

// concaveStart mixedStart nonFeatureStart
0 0 2
// internalStart flatStart openStart multipleStart
63 233 233 233
// normals

460
(
(0 0 1)
(0.951049 0.309039 -0)
(0 0 1)
(0.866025 0.5 -0)
(0 0 1)
(0.743148 0.669127 -0)
(0 0 1)
(0.587801 0.809006 -0)
(0 0 1)
(0.406727 0.91355 -0)
(0 0 1)
(0.207907 0.978149 -0)
(0 0 1)
(0 1 0)
(0 0 1)
(-0.207907 0.978149 0)
(0 0 1)
(-0.406727 0.91355 0)
(0 0 1)
(-0.587801 0.809006 0)
(0 0 1)
(-0.743148 0.669127 0)
(0 0 1)
(-0.866025 0.5 0)
(0 0 1)
(-0.951049 0.309039 0)
(0 0 1)
(-0.994523 0.104517 0)
(-0 0 1)
(-0.994523 -0.104517 0)
(-0 0 1)
(-0.951049 -0.309039 0)
(-0 0 1)
(-0.866025 -0.5 0)
(-0 0 1)
(-0.743148 -0.669127 0)
(-0 0 1)
(-0.587801 -0.809006 0)
(-0 0 1)
(-0.406727 -0.91355 0)
(-0 0 1)
(-0.207907 -0.978149 0)
(0 0 1)
(0 -1 0)
(0 -0 1)
(0.207907 -0.978149 0)
(0 -0 1)
(0.406727 -0.91355 0)
(0 -0 1)
(0.587801 -0.809006 0)
(0 -0 1)
(0.743148 -0.669127 0)
(0 -0 1)
(0.866025 -0.5 0)
(0 -0 1)
(0.951049 -0.309039 0)
(0 -0 1)
(0.994523 -0.104517 0)
(0 0 1)
(0.994523 0.104517 -0)
(-0.994523 -0.104517 -0)
(-0 0 -1)
(-0.951049 -0.309039 -0)
(0 0 -1)
(-0.866025 -0.5 -0)
(-0 0 -1)
(-0.743148 -0.669127 -0)
(0 0 -1)
(-0.587801 -0.809006 -0)
(0 0 -1)
(-0.406727 -0.91355 -0)
(-0 -0 -1)
(-0.207907 -0.978149 -0)
(0 0 -1)
(0 -1 0)
(0 -0 -1)
(0.207907 -0.978149 0)
(0 -0 -1)
(0.406727 -0.91355 0)
(0 0 -1)
(0.587801 -0.809006 0)
(0 -0 -1)
(0.743148 -0.669127 0)
(0 0 -1)
(0.866025 -0.5 0)
(0 0 -1)
(0.951049 -0.309039 0)
(0 0 -1)
(0.994523 -0.104517 0)
(0 0 -1)
(0.994523 0.104517 0)
(0 0 -1)
(0.951049 0.309039 0)
(0 -0 -1)
(0.866025 0.5 0)
(0 0 -1)
(0.743148 0.669127 0)
(0 0 -1)
(0.587801 0.809006 0)
(0 0 -1)
(0.406727 0.91355 0)
(0 0 -1)
(0.207907 0.978149 0)
(0 0 -1)
(0 1 0)
(0 0 -1)
(-0.207907 0.978149 0)
(0 0 -1)
(-0.406727 0.91355 0)
(0 0 -1)
(-0.587801 0.809006 0)
(-0 0 -1)
(-0.743148 0.669127 0)
(0 0 -1)
(-0.866025 0.5 0)
(0 0 -1)
(-0.951049 0.309039 0)
(-0 0 -1)
(-0.994523 0.104517 0)
(0 0 -1)
(0.83286 0.0584054 -0.550394)
(-0 -0 -1)
(0.959046 -0.0673112 -0.275136)
(0 -0 1)
(0 -0 -1)
(-0.149134 0.985086 0.0858129)
(-0 -0 -1)
(0.680057 0.728149 0.0855651)
(-0 0 -1)
(0.781362 0.618162 0.085728)
(0 0 -1)
(0 0.996331 0.085584)
(0 -0 -1)
(0.29489 0.951671 0.0858027)
(0 0 -1)
(0.865121 0.4942 0.0856287)
(-0 0 -1)
(0.993749 0.0713938 0.0858208)
(0 0 -1)
(-0.00939195 -0.99659 0.0819755)
(0 0 -1)
(-0.929336 0.359171 0.0856159)
(0 -0 -1)
(-0.680034 0.728151 0.0857279)
(0 -0 -1)
(-0.563377 0.821721 0.0859177)
(0 0 -1)
(0.149137 0.985106 0.0855822)
(-0 0 -1)
(0.434033 0.896804 0.0857786)
(0 0 -1)
(0.994016 -0.0718701 0.0822583)
(0 0 -1)
(0.55877 -0.825255 0.0820391)
(0 0 -1)
(0.287741 -0.954191 0.082005)
(0 0 -1)
(0.14078 -0.986632 0.0820935)
(0 0 -1)
(-0.159365 -0.983801 0.082089)
(0 0 -1)
(-0.972617 0.215996 0.0858005)
(0 0 -1)
(-0.865101 0.494236 0.0856209)
(0 -0 -1)
(-0.2949 0.951704 0.0853957)
(0 0 -1)
(0.929307 0.35916 0.0859842)
(0 0 -1)
(0.779105 -0.621487 0.0821507)
(0 0 -1)
(-0.305682 -0.948593 0.0820363)
(0 0 -1)
(-0.445026 -0.891741 0.0821568)
(0 0 -1)
(-0.99465 -0.0624684 0.0822788)
(0 0 -1)
(-0.434069 0.896777 0.0858768)
(0 0 -1)
(0.563395 0.821752 0.0854966)
(-0 0 -1)
(0.972624 -0.217346 0.0822366)
(0 0 -1)
(0.676666 -0.731686 0.0822133)
(0 0 -1)
(-0.574189 -0.81457 0.0823573)
(0 0 -1)
(-0.790701 -0.606663 0.0821672)
(0 0 -1)
(-0.781383 0.618147 0.0856435)
(0 0 -1)
(0.972587 0.21604 0.0860293)
(0 0 -1)
(0.428128 -0.899987 0.0820322)
(0 0 -1)
(-0.690331 -0.718813 0.0821604)
(0 0 -1)
(-0.873024 -0.480713 0.0821204)
(0 -0 -1)
(-0.976524 -0.199002 0.0824529)
(-0 0 -1)
(0.928813 -0.361341 0.0820897)
(0 0 -1)
(-0.935455 -0.343742 0.0822496)
(0 0 -1)
(0.86381 -0.497025 0.0824558)
(0 0 -1)
(-0.994051 0.0714154 0.0822293)
(0.938278 0.209428 -0.275272)
(0.928377 0.207218 0.308507)
(0.893221 0.355293 -0.275542)
(0.891649 0.354668 0.281377)
(0.825763 0.492205 -0.275409)
(0.817859 0.487494 0.305706)
(0.630507 0.725675 -0.275422)
(0.6267 0.721293 0.294929)
(0.507616 0.816244 -0.275812)
(0.510258 0.820492 0.25774)
(0.372151 0.886525 -0.274913)
(0.368205 0.877125 0.308345)
(0.227077 0.934207 -0.275124)
(0.226582 0.932171 0.282342)
(0.0762799 0.958249 -0.275573)
(0.0768924 0.965944 0.247064)
(-0.0762903 0.95838 -0.275113)
(-0.0757076 0.951061 0.299586)
(-0.372048 0.886279 -0.275844)
(-0.368293 0.877336 0.30764)
(-0.507675 0.816338 -0.275424)
(-0.503725 0.809988 0.300302)
(-0.630505 0.725667 -0.275446)
(-0.624036 0.718222 0.307793)
(-0.825726 0.492199 -0.275529)
(-0.819434 0.488448 0.299911)
(-0.893285 0.355319 -0.275302)
(-0.900568 0.358216 0.246292)
(-0.938187 0.209357 -0.275636)
(-0.929481 0.207414 0.305032)
(0.959049 0.0672545 -0.275139)
(-0.938289 -0.20938 -0.275271)
(-0.928263 -0.207143 0.308901)
(-0.893222 -0.355294 -0.275537)
(-0.891627 -0.354659 0.281458)
(-0.825757 -0.492214 -0.275409)
(-0.817809 -0.487476 0.305869)
(-0.630515 -0.725684 -0.275379)
(-0.626689 -0.72128 0.294986)
(-0.507707 -0.816375 -0.275255)
(-0.510252 -0.820466 0.257834)
(-0.371845 -0.88592 -0.277265)
(-0.368047 -0.876871 0.309255)
(-0.227006 -0.933708 -0.276871)
(-0.226593 -0.932009 0.282867)
(-0.0762797 -0.958249 -0.275573)
(-0.0768758 -0.965737 0.247875)
(0.0762904 -0.95838 -0.275113)
(0.0757079 -0.951062 0.299582)
(0.372049 -0.886286 -0.275821)
(0.368293 -0.87734 0.307626)
(0.50768 -0.816346 -0.27539)
(0.503684 -0.809922 0.300548)
(0.630511 -0.72568 -0.275398)
(0.624004 -0.71819 0.307934)
(0.825732 -0.492187 -0.275535)
(0.819431 -0.488431 0.299946)
(0.893291 -0.355321 -0.275279)
(0.900545 -0.358206 0.246388)
(0.938348 -0.209443 -0.27502)
(0.92935 -0.207435 0.305418)
(0.832548 -0.0584328 -0.550862)
(-0.133405 -0.0211313 0.990836)
(0.766053 0.121343 0.63122)
(-0.139481 -0.00731241 0.990198)
(0.774557 0.0406067 0.631199)
(-0.122332 -0.0623335 0.99053)
(0.69106 0.352124 0.631225)
(-0.137867 -0.0369417 0.989762)
(0.74917 0.200741 0.631227)
(-0.133486 -0.0512385 0.989725)
(0.724095 0.277942 0.631217)
(-0.128845 -0.0836709 0.988129)
(0.650473 0.422411 0.631232)
(-0.0965263 -0.0965263 0.990639)
(0.548417 0.548417 0.631251)
(-0.0930367 -0.114886 0.989012)
(0.4881 0.602728 0.631251)
(-0.051183 -0.133342 0.989748)
(0.277939 0.724087 0.631227)
(-0.0624655 -0.122592 0.990489)
(0.352122 0.691056 0.63123)
(-0.0210943 -0.133172 0.990868)
(0.121342 0.766047 0.631228)
(0.0210943 -0.133172 0.990868)
(-0.121343 0.766053 0.63122)
(0.00729383 -0.139127 0.990248)
(-0.0406067 0.774557 0.631199)
(0.0624655 -0.122592 0.990489)
(-0.352124 0.69106 0.631225)
(0.0368143 -0.137392 0.989832)
(-0.200741 0.74917 0.631227)
(0.051183 -0.133342 0.989748)
(-0.277942 0.724095 0.631217)
(0.0834514 -0.128507 0.988191)
(-0.422411 0.650473 0.631232)
(0.0965263 -0.0965263 0.990639)
(-0.548417 0.548417 0.631251)
(0.11388 -0.092222 0.989205)
(-0.602728 0.4881 0.631251)
(0.133486 -0.0512385 0.989725)
(-0.724087 0.277939 0.631227)
(0.122332 -0.0623335 0.99053)
(-0.691056 0.352122 0.63123)
(0.133405 -0.0211313 0.990836)
(-0.766047 0.121342 0.631228)
(0.139481 -0.00731241 0.990198)
(-0.77454 0.0406058 0.63122)
(0.137867 -0.0369417 0.989762)
(-0.749178 0.200743 0.631217)
(0.128845 -0.0836709 0.988129)
(-0.650482 0.422417 0.631219)
(0.0930367 -0.114886 0.989012)
(-0.488117 0.602749 0.631217)
(-0.00729383 -0.139127 0.990248)
(0.0406058 0.77454 0.63122)
(-0.0368143 -0.137392 0.989832)
(0.200743 0.749178 0.631217)
(-0.0834514 -0.128507 0.988191)
(0.422417 0.650482 0.631219)
(-0.11388 -0.092222 0.989205)
(0.602749 0.488117 0.631217)
(0.133405 0.0211313 0.990836)
(-0.766053 -0.121343 0.63122)
(0.139481 0.00731241 0.990198)
(-0.774557 -0.0406067 0.631199)
(0.122332 0.0623335 0.99053)
(-0.69106 -0.352124 0.631225)
(0.137867 0.0369417 0.989762)
(-0.74917 -0.200741 0.631227)
(0.133486 0.0512385 0.989725)
(-0.724095 -0.277942 0.631217)
(0.128845 0.0836709 0.988129)
(-0.650473 -0.422411 0.631232)
(0.0965263 0.0965263 0.990639)
(-0.548417 -0.548417 0.631251)
(0.0930367 0.114886 0.989012)
(-0.4881 -0.602728 0.631251)
(0.051183 0.133342 0.989748)
(-0.277939 -0.724087 0.631227)
(0.0624655 0.122592 0.990489)
(-0.352122 -0.691056 0.63123)
(0.0210943 0.133172 0.990868)
(-0.121342 -0.766047 0.631228)
(-0.0210943 0.133172 0.990868)
(0.121343 -0.766053 0.63122)
(-0.00729383 0.139127 0.990248)
(0.0406067 -0.774557 0.631199)
(-0.0624655 0.122592 0.990489)
(0.352124 -0.69106 0.631225)
(-0.0368143 0.137392 0.989832)
(0.200741 -0.74917 0.631227)
(-0.051183 0.133342 0.989748)
(0.277942 -0.724095 0.631217)
(-0.0834514 0.128507 0.988191)
(0.422411 -0.650473 0.631232)
(-0.0965263 0.0965263 0.990639)
(0.548417 -0.548417 0.631251)
(-0.11388 0.092222 0.989205)
(0.602728 -0.4881 0.631251)
(-0.133486 0.0512385 0.989725)
(0.724087 -0.277939 0.631227)
(-0.122332 0.0623335 0.99053)
(0.691056 -0.352122 0.63123)
(-0.133405 0.0211313 0.990836)
(0.766047 -0.121342 0.631228)
(-0.139481 0.00731241 0.990198)
(0.77454 -0.0406058 0.63122)
(-0.137867 0.0369417 0.989762)
(0.749178 -0.200743 0.631217)
(-0.128845 0.0836709 0.988129)
(0.650482 -0.422417 0.631219)
(-0.0930367 0.114886 0.989012)
(0.488117 -0.602749 0.631217)
(0.00729383 0.139127 0.990248)
(-0.0406058 -0.77454 0.63122)
(0.0368143 0.137392 0.989832)
(-0.200743 -0.749178 0.631217)
(0.0834514 0.128507 0.988191)
(-0.422417 -0.650482 0.631219)
(0.11388 0.092222 0.989205)
(-0.602749 -0.488117 0.631217)
(0.153475 0.0134261 0.988061)
(0 0 -1)
(0.148805 0.0398713 0.988062)
(0 0 -1)
(0.139615 0.0651042 0.988063)
(0 0 -1)
(0.126194 0.0883624 0.988062)
(0 0 -1)
(0.108932 0.108932 0.988063)
(0 0 -1)
(0.0883616 0.126193 0.988063)
(0.065107 0.139621 0.988062)
(0 0 -1)
(0.0398699 0.148799 0.988063)
(0 0 -1)
(0.0134255 0.153468 0.988062)
(0 0 -1)
(-0.0134261 0.153475 0.988061)
(-0 0 -1)
(-0.0398713 0.148805 0.988062)
(0 0 -1)
(-0.0651042 0.139615 0.988063)
(-0 0 -1)
(-0.0883624 0.126194 0.988062)
(0 0 -1)
(-0.108932 0.108932 0.988063)
(-0 0 -1)
(-0.126193 0.0883616 0.988063)
(0 0 -1)
(-0.139621 0.065107 0.988062)
(0 0 -1)
(-0.148799 0.0398699 0.988063)
(-0 0 -1)
(-0.153468 0.0134255 0.988062)
(0 0 -1)
(-0.153475 -0.0134261 0.988061)
(-0 -0 -1)
(-0.148805 -0.0398713 0.988062)
(0 0 -1)
(-0.139615 -0.0651042 0.988063)
(0 0 -1)
(-0.126194 -0.0883624 0.988062)
(0 0 -1)
(-0.108932 -0.108932 0.988063)
(0 0 -1)
(-0.0883616 -0.126193 0.988063)
(0 -0 -1)
(-0.065107 -0.139621 0.988062)
(0 0 -1)
(-0.0398699 -0.148799 0.988063)
(0 -0 -1)
(-0.0134255 -0.153468 0.988062)
(0 0 -1)
(0.0134261 -0.153475 0.988061)
(0 0 -1)
(0.0398713 -0.148805 0.988062)
(0.0651042 -0.139615 0.988063)
(0 0 -1)
(0.0883624 -0.126194 0.988062)
(0 0 -1)
(0.108932 -0.108932 0.988063)
(0 0 -1)
(0.126193 -0.0883616 0.988063)
(0 0 -1)
(0.139621 -0.065107 0.988062)
(0 0 -1)
(0.148799 -0.0398699 0.988063)
(0 0 -1)
(0.153468 -0.0134255 0.988062)
(0 0 -1)
)

// normal volume types

460
(
0
0
0
0
0
0
0
0
0
0
0
0
0
0
0
0
0
0
0
0
0
0
0
0
0
0
0
0
0
0
0
0
0
0
0
0
0
0
0
0
0
0
0
0
0
0
0
0
0
0
0
0
0
0
0
0
0
0
0
0
0
0
0
0
0
0
0
0
0
0
0
0
0
0
0
0
0
0
0
0
0
0
0
0
0
0
0
0
0
0
0
0
0
0
0
0
0
0
0
0
0
0
0
0
0
0
0
0
0
0
0
0
0
0
0
0
0
0
0
0
0
0
0
0
0
0
0
0
0
0
0
0
0
0
0
0
0
0
0
0
0
0
0
0
0
0
0
0
0
0
0
0
0
0
0
0
0
0
0
0
0
0
0
0
0
0
0
0
0
0
0
0
0
0
0
0
0
0
0
0
0
0
0
0
0
0
0
0
0
0
0
0
0
0
0
0
0
0
0
0
0
0
0
0
0
0
0
0
0
0
0
0
0
0
0
0
0
0
0
0
0
0
0
0
0
0
0
0
0
0
0
0
0
0
0
0
0
0
0
0
0
0
0
0
0
0
0
0
0
0
0
0
0
0
0
0
0
0
0
0
0
0
0
0
0
0
0
0
0
0
0
0
0
0
0
0
0
0
0
0
0
0
0
0
0
0
0
0
0
0
0
0
0
0
0
0
0
0
0
0
0
0
0
0
0
0
0
0
0
0
0
0
0
0
0
0
0
0
0
0
0
0
0
0
0
0
0
0
0
0
0
0
0
0
0
0
0
0
0
0
0
0
0
0
0
0
0
0
0
0
0
0
0
0
0
0
0
0
0
0
0
0
0
0
0
0
0
0
0
0
0
0
0
0
0
0
0
0
0
0
0
0
0
0
0
0
0
0
0
0
0
0
0
0
0
0
0
0
0
0
0
0
0
0
0
0
0
0
0
0
0
0
0
0
0
0
0
0
0
0
0
0
0
0
0
0
0
0
0
0
0
0
0
0
0
0
0
0
0
0
0
0
0
0
0
0
0
0
0
0
0
0
0
0
0
0
0
0
0
0
)

// normalDirections

233
(
2(1 -1)
2(1 -1)
2(1 -1)
2(1 -1)
2(1 -1)
2(1 -1)
2(1 -1)
2(1 -1)
2(1 -1)
2(1 -1)
2(1 -1)
2(1 -1)
2(1 -1)
2(1 -1)
2(1 -1)
2(1 -1)
2(1 -1)
2(1 -1)
2(1 -1)
2(1 -1)
2(1 -1)
2(1 -1)
2(1 -1)
2(1 -1)
2(1 -1)
2(1 -1)
2(1 -1)
2(1 -1)
2(1 -1)
2(1 -1)
2(1 -1)
2(1 -1)
2(1 -1)
2(1 -1)
2(1 -1)
2(1 -1)
2(1 -1)
2(1 -1)
2(1 -1)
2(1 -1)
2(1 -1)
2(1 -1)
2(1 -1)
2(1 -1)
2(1 -1)
2(1 -1)
2(1 -1)
2(1 -1)
2(1 -1)
2(1 -1)
2(1 -1)
2(1 -1)
2(1 -1)
2(1 -1)
2(1 -1)
2(1 -1)
2(1 -1)
2(1 -1)
2(1 -1)
2(1 -1)
2(1 -1)
2(1 -1)
2(1 -1)
2(1 -1)
2(1 -1)
2(1 -1)
2(1 -1)
2(1 -1)
2(1 -1)
2(1 -1)
2(1 -1)
2(1 -1)
2(1 -1)
2(1 -1)
2(1 -1)
2(1 -1)
2(1 -1)
2(1 -1)
2(1 -1)
2(1 -1)
2(1 -1)
2(1 -1)
2(1 -1)
2(1 -1)
2(1 -1)
2(1 -1)
2(1 -1)
2(1 -1)
2(1 -1)
2(1 -1)
2(1 -1)
2(1 -1)
2(1 -1)
2(1 -1)
2(1 -1)
2(1 -1)
2(1 -1)
2(1 -1)
2(1 -1)
2(1 -1)
2(1 -1)
2(1 -1)
2(1 -1)
2(1 -1)
2(1 -1)
2(1 -1)
2(1 -1)
2(1 -1)
2(1 -1)
2(1 -1)
2(1 -1)
2(1 -1)
2(1 -1)
2(1 -1)
2(1 -1)
2(1 -1)
2(1 -1)
2(1 -1)
2(1 -1)
2(1 -1)
2(1 -1)
2(1 -1)
2(1 -1)
2(1 -1)
2(1 -1)
2(1 -1)
2(1 -1)
2(1 -1)
2(1 -1)
2(1 -1)
2(1 -1)
2(1 -1)
2(1 -1)
2(1 -1)
2(1 -1)
2(1 -1)
2(1 -1)
2(1 -1)
2(1 -1)
2(1 -1)
2(1 -1)
2(1 -1)
2(1 -1)
2(1 -1)
2(1 -1)
2(1 -1)
2(1 -1)
2(1 -1)
2(1 -1)
2(1 -1)
2(1 -1)
2(1 -1)
2(1 -1)
2(1 -1)
2(1 -1)
2(1 -1)
2(1 -1)
2(1 -1)
2(1 -1)
2(1 -1)
2(1 -1)
2(1 -1)
2(1 -1)
2(1 -1)
2(1 -1)
2(1 -1)
2(1 -1)
2(1 -1)
2(1 -1)
2(1 -1)
2(1 -1)
2(1 -1)
2(1 -1)
2(1 -1)
2(1 -1)
2(1 -1)
2(1 -1)
2(1 -1)
2(1 -1)
2(1 -1)
2(1 -1)
2(1 -1)
2(1 -1)
2(1 -1)
2(1 -1)
2(1 -1)
2(1 -1)
2(1 -1)
2(1 -1)
2(1 -1)
2(1 -1)
2(1 -1)
2(1 -1)
2(1 -1)
2(1 -1)
2(1 -1)
2(1 -1)
2(1 -1)
2(1 -1)
2(1 -1)
2(1 -1)
2(1 -1)
2(1 -1)
2(1 -1)
2(1 -1)
2(1 -1)
2(1 -1)
2(1 -1)
2(1 -1)
2(1 -1)
2(1 -1)
2(1 -1)
2(1 -1)
2(1 -1)
2(1 -1)
2(1 -1)
2(1 -1)
2(1 -1)
2(1 -1)
2(1 -1)
2(1 -1)
2(1 -1)
2(1 -1)
2(1 -1)
2(1 -1)
2(1 -1)
2(1 -1)
2(1 -1)
2(1 -1)
2(1 -1)
2(1 -1)
2(1 -1)
2(1 -1)
)

// edgeNormals

233
(
2(0 1)
2(2 3)
2(4 5)
2(6 7)
2(8 9)
2(10 11)
2(12 13)
2(14 15)
2(16 17)
2(18 19)
2(20 21)
2(22 23)
2(24 25)
2(26 27)
2(28 29)
2(30 31)
2(32 33)
2(34 35)
2(36 37)
2(38 39)
2(40 41)
2(42 43)
2(44 45)
2(46 47)
2(48 49)
2(50 51)
2(52 53)
2(54 55)
2(56 57)
2(58 59)
2(60 61)
2(62 63)
2(64 65)
2(66 67)
2(68 69)
2(70 71)
2(72 73)
2(74 75)
2(76 77)
2(78 79)
2(80 81)
2(82 83)
2(84 85)
2(86 87)
2(88 89)
2(90 91)
2(92 93)
2(94 95)
2(96 97)
2(98 99)
2(100 101)
2(102 103)
2(104 105)
2(106 107)
2(108 109)
2(110 111)
2(112 113)
2(114 115)
2(116 117)
2(118 119)
2(120 121)
2(122 123)
2(121 123)
2(124 125)
2(126 127)
2(128 129)
2(130 131)
2(132 133)
2(134 135)
2(136 137)
2(138 139)
2(140 141)
2(142 143)
2(144 145)
2(146 147)
2(148 149)
2(150 151)
2(152 153)
2(154 155)
2(156 157)
2(158 159)
2(160 161)
2(162 163)
2(164 165)
2(166 167)
2(168 169)
2(170 171)
2(172 173)
2(174 175)
2(176 177)
2(178 179)
2(180 181)
2(182 183)
2(184 185)
2(186 187)
2(188 189)
2(190 191)
2(192 193)
2(194 195)
2(196 197)
2(198 199)
2(200 201)
2(202 203)
2(204 205)
2(206 207)
2(208 209)
2(210 211)
2(212 213)
2(214 215)
2(216 217)
2(218 219)
2(220 221)
2(222 223)
2(224 225)
2(226 227)
2(228 229)
2(230 231)
2(232 233)
2(234 235)
2(236 237)
2(238 121)
2(239 240)
2(241 242)
2(243 244)
2(245 246)
2(247 248)
2(249 250)
2(251 252)
2(253 254)
2(255 256)
2(257 258)
2(259 260)
2(261 262)
2(263 264)
2(265 266)
2(267 268)
2(269 123)
2(270 271)
2(272 273)
2(274 275)
2(276 277)
2(278 279)
2(280 281)
2(282 283)
2(284 285)
2(286 287)
2(288 289)
2(290 291)
2(292 293)
2(294 295)
2(296 297)
2(298 299)
2(300 301)
2(302 303)
2(304 305)
2(306 307)
2(308 309)
2(310 311)
2(312 313)
2(314 315)
2(316 317)
2(318 319)
2(320 321)
2(322 323)
2(324 325)
2(326 327)
2(328 329)
2(330 331)
2(332 333)
2(334 335)
2(336 337)
2(338 339)
2(340 341)
2(342 343)
2(344 345)
2(346 347)
2(348 349)
2(350 351)
2(352 353)
2(354 355)
2(356 357)
2(358 359)
2(360 361)
2(362 363)
2(364 365)
2(366 367)
2(368 369)
2(370 371)
2(372 373)
2(374 375)
2(376 377)
2(378 379)
2(380 381)
2(382 383)
2(384 385)
2(386 387)
2(388 389)
2(390 391)
2(392 393)
2(394 395)
2(396 397)
2(398 399)
2(400 399)
2(401 402)
2(403 404)
2(405 406)
2(407 408)
2(409 410)
2(411 412)
2(413 414)
2(415 416)
2(417 418)
2(419 420)
2(421 422)
2(423 424)
2(425 426)
2(427 428)
2(429 430)
2(431 432)
2(433 434)
2(435 436)
2(437 438)
2(439 440)
2(441 442)
2(443 444)
2(445 444)
2(446 447)
2(448 449)
2(450 451)
2(452 453)
2(454 455)
2(456 457)
2(458 459)
)

// featurePointNormals

2
(
4(120 121 123 269)
4(122 123 121 238)
)

// featurePointEdges

2
(
3(60 62 136)
3(120 62 61)
)

// regionEdges
0()


// ************************************************************************* //
