/*--------------------------------*- C++ -*----------------------------------*\
  =========                 |
  \\      /  F ield         | OpenFOAM: The Open Source CFD Toolbox
   \\    /   O peration     | Website:  https://openfoam.org
    \\  /    A nd           | Version:  13
     \\/     M anipulation  |
\*---------------------------------------------------------------------------*/
FoamFile
{
    format      ascii;
    class       featureEdgeMesh;
    location    "constant/triSurface";
    object      bottle.eMesh;
}
// * * * * * * * * * * * * * * * * * * * * * * * * * * * * * * * * * * * * * //


// points:

240
(
(0.0121915 1.08994e-10 0.194998)
(0.0121915 -4.06091e-09 0.194998)
(0.0136941 0.00291076 0.213696)
(0.0127896 0.00569431 0.213696)
(0.0113262 0.00822899 0.213696)
(0.00936783 0.010404 0.213696)
(0.007 0.0121244 0.213696)
(0.00432624 0.0133148 0.213696)
(0.0014634 0.0139233 0.213696)
(-0.0014634 0.0139233 0.213696)
(-0.00432624 0.0133148 0.213696)
(-0.007 0.0121244 0.213696)
(-0.00936783 0.010404 0.213696)
(-0.0113262 0.00822899 0.213696)
(-0.0127896 0.00569431 0.213696)
(-0.0136941 0.00291076 0.213696)
(-0.014 0 0.213696)
(-0.0136941 -0.00291076 0.213696)
(-0.0127896 -0.00569431 0.213696)
(-0.0113262 -0.00822899 0.213696)
(-0.00936783 -0.010404 0.213696)
(-0.007 -0.0121244 0.213696)
(-0.00432624 -0.0133148 0.213696)
(-0.0014634 -0.0139233 0.213696)
(0.0014634 -0.0139233 0.213696)
(0.00432624 -0.0133148 0.213696)
(0.007 -0.0121244 0.213696)
(0.00936783 -0.010404 0.213696)
(0.0113262 -0.00822899 0.213696)
(0.0127896 -0.00569431 0.213696)
(0.0136941 -0.00291076 0.213696)
(0.014 0 0.213696)
(-0.014 0 0.196696)
(-0.0136941 -0.00291076 0.196696)
(-0.0127896 -0.00569431 0.196696)
(-0.0113262 -0.00822899 0.196696)
(-0.00936783 -0.010404 0.196696)
(-0.007 -0.0121244 0.196696)
(-0.00432624 -0.0133148 0.196696)
(-0.0014634 -0.0139233 0.196696)
(0.0014634 -0.0139233 0.196696)
(0.00432624 -0.0133148 0.196696)
(0.007 -0.0121244 0.196696)
(0.00936783 -0.010404 0.196696)
(0.0113262 -0.00822899 0.196696)
(0.0127896 -0.00569431 0.196696)
(0.0136941 -0.00291076 0.196696)
(0.014 0 0.196696)
(0.0136941 0.00291076 0.196696)
(0.0127896 0.00569431 0.196696)
(0.0113262 0.00822899 0.196696)
(0.00936783 0.010404 0.196696)
(0.007 0.0121244 0.196696)
(0.00432624 0.0133148 0.196696)
(0.0014634 0.0139233 0.196696)
(-0.0014634 0.0139233 0.196696)
(-0.00432624 0.0133148 0.196696)
(-0.007 0.0121244 0.196696)
(-0.00936783 0.010404 0.196696)
(-0.0113262 0.00822899 0.196696)
(-0.0127896 0.00569431 0.196696)
(-0.0136941 0.00291076 0.196696)
(0.0120721 0.00170263 0.194998)
(0.012072 -0.00170263 0.194998)
(-0.00100213 0.0133139 0.196696)
(-0.00298374 0.0130139 0.196696)
(0.00981979 0.00904631 0.196696)
(0.00835506 0.0104143 0.196696)
(0.0110633 0.0074745 0.196696)
(0.00100206 0.0133139 0.196696)
(0.00489805 0.0124207 0.196696)
(0.00298367 0.0130139 0.196696)
(0.0120574 0.00573428 0.196696)
(0.0133516 -1.59311e-11 0.196696)
(0.0132145 0.00190833 0.196696)
(-0.00113353 -0.0133034 0.196696)
(0.000882572 -0.0133224 0.196696)
(-0.0120575 0.00573422 0.196696)
(-0.01278 0.00386479 0.196696)
(-0.00835512 0.0104142 0.196696)
(-0.00981985 0.00904626 0.196696)
(-0.00670213 0.0115475 0.196696)
(0.00670206 0.0115476 0.196696)
(0.0132128 -0.0019197 0.196696)
(0.00662955 -0.0115894 0.196696)
(0.00829905 -0.010459 0.196696)
(0.00287855 -0.0130376 0.196696)
(0.00480888 -0.0124555 0.196696)
(-0.00312378 -0.012981 0.196696)
(-0.0132145 0.00190827 0.196696)
(-0.0110633 0.00747445 0.196696)
(-0.00489812 0.0124207 0.196696)
(0.0127799 0.00386485 0.196696)
(0.0097793 -0.00909006 0.196696)
(0.0110366 -0.00751389 0.196696)
(-0.0050428 -0.0123626 0.196696)
(-0.00684682 -0.0114623 0.196696)
(-0.0133516 -6.3842e-08 0.196696)
(-0.0132467 -0.00167032 0.196696)
(0.0127731 -0.00388736 0.196696)
(-0.00849472 -0.0103007 0.196696)
(-0.0111762 -0.00730453 0.196696)
(-0.00994891 -0.00890413 0.196696)
(-0.0121487 -0.00553837 0.196696)
(-0.0128441 -0.00364592 0.196696)
(0.0120421 -0.00576637 0.196696)
(0.0120308 0.00169681 0.194853)
(0.0116105 0.00357984 0.194853)
(0.0108974 0.0053726 0.194853)
(0.00990956 0.00702988 0.194853)
(0.00867181 0.00850989 0.194853)
(0.00721539 0.00977531 0.194853)
(0.00557702 0.0107942 0.194853)
(0.00379802 0.011541 0.194853)
(0.00192324 0.0119967 0.194853)
(-3.4592e-08 0.0121498 0.194853)
(-0.00192331 0.0119967 0.194853)
(-0.00379809 0.011541 0.194853)
(-0.00557709 0.0107942 0.194853)
(-0.00721546 0.00977531 0.194853)
(-0.00867188 0.00850988 0.194853)
(-0.00990963 0.00702987 0.194853)
(-0.0108975 0.00537259 0.194853)
(-0.0116106 0.00357983 0.194853)
(-0.0120308 0.0016968 0.194853)
(-0.0120308 -0.00169678 0.194853)
(-0.0116106 -0.00357981 0.194853)
(-0.0108975 -0.00537257 0.194853)
(-0.00990963 -0.00702986 0.194853)
(-0.00867189 -0.00850987 0.194853)
(-0.00721547 -0.00977529 0.194853)
(-0.0055771 -0.0107942 0.194853)
(-0.00379809 -0.0115409 0.194853)
(-0.00192332 -0.0119967 0.194853)
(-4.19031e-08 -0.0121498 0.194853)
(0.00192323 -0.0119967 0.194853)
(0.00379801 -0.011541 0.194853)
(0.00557702 -0.0107942 0.194853)
(0.00721539 -0.00977531 0.194853)
(0.00867181 -0.00850989 0.194853)
(0.00990956 -0.00702988 0.194853)
(0.0108974 -0.0053726 0.194853)
(0.0116105 -0.00357984 0.194853)
(0.0120308 -0.00169681 0.194853)
(-0.0248086 -0.00260749 0.00301121)
(-0.0244001 -0.00518641 0.00301121)
(-0.0249453 0 0.00301121)
(-0.0227886 -0.0101462 0.00301121)
(-0.0216032 -0.0124726 0.00301121)
(-0.0237243 -0.00770851 0.00301121)
(-0.0201811 -0.0146625 0.00301121)
(-0.0185379 -0.0166916 0.00301121)
(-0.0166916 -0.0185379 0.00301121)
(-0.0146625 -0.0201811 0.00301121)
(-0.0101462 -0.0227886 0.00301121)
(-0.00770851 -0.0237243 0.00301121)
(-0.0124726 -0.0216032 0.00301121)
(-0.00518641 -0.0244001 0.00301121)
(-0.00260749 -0.0248086 0.00301121)
(0.00260749 -0.0248086 0.00301121)
(0.00518641 -0.0244001 0.00301121)
(0 -0.0249453 0.00301121)
(0.0101462 -0.0227886 0.00301121)
(0.0124726 -0.0216032 0.00301121)
(0.00770851 -0.0237243 0.00301121)
(0.0146625 -0.0201811 0.00301121)
(0.0166916 -0.0185379 0.00301121)
(0.0185379 -0.0166916 0.00301121)
(0.0201811 -0.0146625 0.00301121)
(0.0227886 -0.0101462 0.00301121)
(0.0237243 -0.00770851 0.00301121)
(0.0216032 -0.0124726 0.00301121)
(0.0244001 -0.00518641 0.00301121)
(0.0248086 -0.00260749 0.00301121)
(0.0249453 0 0.00301121)
(0.0248086 0.00260749 0.00301121)
(0.0244001 0.00518641 0.00301121)
(0.0227886 0.0101462 0.00301121)
(0.0216032 0.0124726 0.00301121)
(0.0237243 0.00770851 0.00301121)
(0.0201811 0.0146625 0.00301121)
(0.0185379 0.0166916 0.00301121)
(0.0166916 0.0185379 0.00301121)
(0.0146625 0.0201811 0.00301121)
(0.0101462 0.0227886 0.00301121)
(0.00770851 0.0237243 0.00301121)
(0.0124726 0.0216032 0.00301121)
(0.00518641 0.0244001 0.00301121)
(0.00260749 0.0248086 0.00301121)
(-0.00260749 0.0248086 0.00301121)
(-0.00518641 0.0244001 0.00301121)
(0 0.0249453 0.00301121)
(-0.0101462 0.0227886 0.00301121)
(-0.0124726 0.0216032 0.00301121)
(-0.00770851 0.0237243 0.00301121)
(-0.0146625 0.0201811 0.00301121)
(-0.0166916 0.0185379 0.00301121)
(-0.0185379 0.0166916 0.00301121)
(-0.0201811 0.0146625 0.00301121)
(-0.0227886 0.0101462 0.00301121)
(-0.0237243 0.00770851 0.00301121)
(-0.0216032 0.0124726 0.00301121)
(-0.0244001 0.00518641 0.00301121)
(-0.0248086 0.00260749 0.00301121)
(-0.0101041 0 0.211696)
(-0.00995061 -0.00175456 0.211696)
(-0.00949477 -0.00345581 0.211696)
(-0.00875042 -0.00505206 0.211696)
(-0.0077402 -0.0064948 0.211696)
(-0.0064948 -0.0077402 0.211696)
(-0.00505206 -0.00875042 0.211696)
(-0.00345581 -0.00949477 0.211696)
(-0.00175456 -0.00995061 0.211696)
(0 -0.0101041 0.211696)
(0.00175456 -0.00995061 0.211696)
(0.00345581 -0.00949477 0.211696)
(0.00505206 -0.00875042 0.211696)
(0.0064948 -0.0077402 0.211696)
(0.0077402 -0.0064948 0.211696)
(0.00875042 -0.00505206 0.211696)
(0.00949477 -0.00345581 0.211696)
(0.00995061 -0.00175456 0.211696)
(0.0101041 0 0.211696)
(0.00995061 0.00175456 0.211696)
(0.00949477 0.00345581 0.211696)
(0.00875042 0.00505206 0.211696)
(0.0077402 0.0064948 0.211696)
(0.0064948 0.0077402 0.211696)
(0.00505206 0.00875042 0.211696)
(0.00345581 0.00949477 0.211696)
(0.00175456 0.00995061 0.211696)
(0 0.0101041 0.211696)
(-0.00175456 0.00995061 0.211696)
(-0.00345581 0.00949477 0.211696)
(-0.00505206 0.00875042 0.211696)
(-0.0064948 0.0077402 0.211696)
(-0.0077402 0.0064948 0.211696)
(-0.00875042 0.00505206 0.211696)
(-0.00949477 0.00345581 0.211696)
(-0.00995061 0.00175456 0.211696)
)


// edges:

233
(
(2 3)
(3 4)
(4 5)
(5 6)
(6 7)
(7 8)
(8 9)
(9 10)
(10 11)
(11 12)
(12 13)
(13 14)
(14 15)
(15 16)
(16 17)
(17 18)
(18 19)
(19 20)
(20 21)
(21 22)
(22 23)
(23 24)
(24 25)
(25 26)
(26 27)
(27 28)
(28 29)
(29 30)
(30 31)
(31 2)
(32 33)
(33 34)
(34 35)
(35 36)
(36 37)
(37 38)
(38 39)
(39 40)
(40 41)
(41 42)
(42 43)
(43 44)
(44 45)
(45 46)
(46 47)
(47 48)
(48 49)
(49 50)
(50 51)
(51 52)
(52 53)
(53 54)
(54 55)
(55 56)
(56 57)
(57 58)
(58 59)
(59 60)
(60 61)
(61 32)
(0 62)
(1 63)
(0 1)
(64 65)
(66 67)
(68 66)
(69 64)
(70 71)
(72 68)
(73 74)
(75 76)
(77 78)
(79 80)
(81 79)
(71 69)
(82 70)
(83 73)
(84 85)
(86 87)
(76 86)
(88 75)
(78 89)
(90 77)
(65 91)
(92 72)
(93 94)
(95 88)
(96 95)
(97 98)
(91 81)
(67 82)
(99 83)
(85 93)
(100 96)
(101 102)
(80 90)
(74 92)
(87 84)
(102 100)
(103 101)
(98 104)
(105 99)
(104 103)
(94 105)
(89 97)
(106 107)
(107 108)
(108 109)
(110 111)
(111 112)
(112 113)
(113 114)
(114 115)
(115 116)
(117 118)
(118 119)
(119 120)
(121 122)
(122 123)
(123 124)
(62 1)
(125 126)
(126 127)
(127 128)
(129 130)
(130 131)
(131 132)
(132 133)
(133 134)
(134 135)
(136 137)
(137 138)
(138 139)
(140 141)
(141 142)
(142 143)
(63 0)
(144 145)
(146 144)
(147 148)
(145 149)
(149 147)
(148 150)
(151 152)
(152 153)
(154 155)
(156 154)
(157 158)
(159 160)
(161 159)
(162 163)
(160 164)
(164 162)
(163 165)
(166 167)
(167 168)
(169 170)
(171 169)
(172 173)
(173 174)
(170 172)
(168 171)
(165 166)
(158 161)
(155 157)
(153 156)
(150 151)
(175 176)
(174 175)
(177 178)
(176 179)
(179 177)
(178 180)
(181 182)
(182 183)
(184 185)
(186 184)
(187 188)
(189 190)
(191 189)
(192 193)
(190 194)
(194 192)
(193 195)
(196 197)
(197 198)
(199 200)
(201 199)
(202 203)
(203 146)
(200 202)
(198 201)
(195 196)
(188 191)
(185 187)
(183 186)
(180 181)
(204 205)
(205 206)
(206 207)
(207 208)
(208 209)
(209 210)
(210 211)
(211 212)
(212 213)
(213 214)
(214 215)
(215 216)
(216 217)
(217 218)
(218 219)
(219 220)
(220 221)
(221 222)
(222 223)
(223 224)
(224 225)
(225 226)
(226 227)
(227 228)
(228 229)
(229 230)
(230 231)
(231 232)
(232 233)
(233 234)
(234 235)
(235 236)
(236 237)
(237 238)
(238 239)
(239 204)
)

// * * * * * * * * * * * * * * * * * * * * * * * * * * * * * * * * * * * * * //


// ************************************************************************* //
