FoamFile
{
    version     2.0;
    format      ascii;
    class       volScalarField;
    location    "0";
    object      nut;
}

dimensions      [0 2 -1 0 0 0 0];

internalField   uniform 1e-5;

boundaryField
{
    bottle
    {
        type            nutUSpaldingWallFunction;
        value           uniform 0;
    }
}
